1



                                 *********************************************

                                    NUMERICAL ELECTROMAGNETICS CODE (NEC-2D)

                                 *********************************************




                                     - - - - COMMENTS - - - -


                          ND.NEC - nondirectional operation of 8-tower array                        
                          Single Wire Tower  4’ face  405’ AGL  20 segments                     
                          Perfectly conducting ground                                               
                          Exciting tower 7 with others grounded thru 15uH                           
                                                                                                    




                                 - - - STRUCTURE SPECIFICATION - - -

                                     COORDINATES MUST BE INPUT IN
                                     METERS OR BE SCALED TO METERS
                                     BEFORE STRUCTURE INPUT IS ENDED


  WIRE                                                                               NO. OF    FIRST  LAST     TAG
  NO.        X1         Y1         Z1          X2         Y2         Z2      RADIUS   SEG.     SEG.   SEG.     NO.
     1     .00000     .00000     .00000      .00000     .00000  123.44000     .58200     20        1    20     101
     2   61.04300   24.66300     .00000    61.04300   24.66300  123.44000     .58200     20       21    40     201
     3  122.08600   49.32600     .00000   122.08600   49.32600  123.44000     .58200     20       41    60     301
     4  183.12900   73.98900     .00000   183.12900   73.98900  123.44000     .58200     20       61    80     401
     5   -3.13500  -59.81100     .00000    -3.13500  -59.81100  123.44000     .58200     20       81   100     501
     6   57.86700  -35.07300     .00000    57.86700  -35.07300  123.44000     .58200     20      101   120     601
     7  119.02400  -10.45500     .00000   119.02400  -10.45500  123.44000     .58200     20      121   140     701
     8  179.88100   14.22000     .00000   179.88100   14.22000  123.44000     .58200     20      141   160     801

   GROUND PLANE SPECIFIED.

   WHERE WIRE ENDS TOUCH GROUND, CURRENT WILL BE INTERPOLATED TO IMAGE IN GROUND PLANE.


   TOTAL SEGMENTS USED=  160     NO. SEG. IN A SYMMETRIC CELL=  160     SYMMETRY FLAG=  0


         - MULTIPLE WIRE JUNCTIONS -
 JUNCTION    SEGMENTS  (- FOR END 1, + FOR END 2)
  NONE




                                 - - - - SEGMENTATION DATA - - - -

                                        COORDINATES IN METERS

                         I+ AND I- INDICATE THE SEGMENTS BEFORE AND AFTER I


  SEG.   COORDINATES OF SEG. CENTER     SEG.     ORIENTATION ANGLES    WIRE    CONNECTION DATA   TAG
  NO.       X         Y         Z       LENGTH     ALPHA     BETA      RADIUS    I-   I    I+    NO.
     1    .00000    .00000   3.08600   6.17200   90.00000    .00000    .58200     1    1    2    101
     2    .00000    .00000   9.25800   6.17200   90.00000    .00000    .58200     1    2    3    101
     3    .00000    .00000  15.43000   6.17200   90.00000    .00000    .58200     2    3    4    101
     4    .00000    .00000  21.60200   6.17200   90.00000    .00000    .58200     3    4    5    101
     5    .00000    .00000  27.77400   6.17200   90.00000    .00000    .58200     4    5    6    101
     6    .00000    .00000  33.94600   6.17200   90.00000    .00000    .58200     5    6    7    101
     7    .00000    .00000  40.11800   6.17200   90.00000    .00000    .58200     6    7    8    101
     8    .00000    .00000  46.29000   6.17200   90.00000    .00000    .58200     7    8    9    101
     9    .00000    .00000  52.46200   6.17200   90.00000    .00000    .58200     8    9   10    101
    10    .00000    .00000  58.63400   6.17200   90.00000    .00000    .58200     9   10   11    101
    11    .00000    .00000  64.80600   6.17200   90.00000    .00000    .58200    10   11   12    101
    12    .00000    .00000  70.97800   6.17200   90.00000    .00000    .58200    11   12   13    101
    13    .00000    .00000  77.15000   6.17200   90.00000    .00000    .58200    12   13   14    101
    14    .00000    .00000  83.32200   6.17200   90.00000    .00000    .58200    13   14   15    101
    15    .00000    .00000  89.49400   6.17200   90.00000    .00000    .58200    14   15   16    101
    16    .00000    .00000  95.66600   6.17200   90.00000    .00000    .58200    15   16   17    101
    17    .00000    .00000 101.83800   6.17200   90.00000    .00000    .58200    16   17   18    101
    18    .00000    .00000 108.01000   6.17200   90.00000    .00000    .58200    17   18   19    101
    19    .00000    .00000 114.18200   6.17200   90.00000    .00000    .58200    18   19   20    101
    20    .00000    .00000 120.35400   6.17200   90.00000    .00000    .58200    19   20    0    101
    21  61.04300  24.66300   3.08600   6.17200   90.00000    .00000    .58200    21   21   22    201
    22  61.04300  24.66300   9.25800   6.17200   90.00000    .00000    .58200    21   22   23    201
    23  61.04300  24.66300  15.43000   6.17200   90.00000    .00000    .58200    22   23   24    201
    24  61.04300  24.66300  21.60200   6.17200   90.00000    .00000    .58200    23   24   25    201
    25  61.04300  24.66300  27.77400   6.17200   90.00000    .00000    .58200    24   25   26    201
    26  61.04300  24.66300  33.94600   6.17200   90.00000    .00000    .58200    25   26   27    201
    27  61.04300  24.66300  40.11800   6.17200   90.00000    .00000    .58200    26   27   28    201
    28  61.04300  24.66300  46.29000   6.17200   90.00000    .00000    .58200    27   28   29    201
    29  61.04300  24.66300  52.46200   6.17200   90.00000    .00000    .58200    28   29   30    201
    30  61.04300  24.66300  58.63400   6.17200   90.00000    .00000    .58200    29   30   31    201
    31  61.04300  24.66300  64.80600   6.17200   90.00000    .00000    .58200    30   31   32    201
    32  61.04300  24.66300  70.97800   6.17200   90.00000    .00000    .58200    31   32   33    201
    33  61.04300  24.66300  77.15000   6.17200   90.00000    .00000    .58200    32   33   34    201
    34  61.04300  24.66300  83.32200   6.17200   90.00000    .00000    .58200    33   34   35    201
    35  61.04300  24.66300  89.49400   6.17200   90.00000    .00000    .58200    34   35   36    201
    36  61.04300  24.66300  95.66600   6.17200   90.00000    .00000    .58200    35   36   37    201
    37  61.04300  24.66300 101.83800   6.17200   90.00000    .00000    .58200    36   37   38    201
    38  61.04300  24.66300 108.01000   6.17200   90.00000    .00000    .58200    37   38   39    201
    39  61.04300  24.66300 114.18200   6.17200   90.00000    .00000    .58200    38   39   40    201
    40  61.04300  24.66300 120.35400   6.17200   90.00000    .00000    .58200    39   40    0    201
    41 122.08600  49.32600   3.08600   6.17200   90.00000    .00000    .58200    41   41   42    301
    42 122.08600  49.32600   9.25800   6.17200   90.00000    .00000    .58200    41   42   43    301
    43 122.08600  49.32600  15.43000   6.17200   90.00000    .00000    .58200    42   43   44    301
    44 122.08600  49.32600  21.60200   6.17200   90.00000    .00000    .58200    43   44   45    301
    45 122.08600  49.32600  27.77400   6.17200   90.00000    .00000    .58200    44   45   46    301
    46 122.08600  49.32600  33.94600   6.17200   90.00000    .00000    .58200    45   46   47    301
    47 122.08600  49.32600  40.11800   6.17200   90.00000    .00000    .58200    46   47   48    301
    48 122.08600  49.32600  46.29000   6.17200   90.00000    .00000    .58200    47   48   49    301
    49 122.08600  49.32600  52.46200   6.17200   90.00000    .00000    .58200    48   49   50    301
    50 122.08600  49.32600  58.63400   6.17200   90.00000    .00000    .58200    49   50   51    301
    51 122.08600  49.32600  64.80600   6.17200   90.00000    .00000    .58200    50   51   52    301
    52 122.08600  49.32600  70.97800   6.17200   90.00000    .00000    .58200    51   52   53    301
    53 122.08600  49.32600  77.15000   6.17200   90.00000    .00000    .58200    52   53   54    301
    54 122.08600  49.32600  83.32200   6.17200   90.00000    .00000    .58200    53   54   55    301
    55 122.08600  49.32600  89.49400   6.17200   90.00000    .00000    .58200    54   55   56    301
    56 122.08600  49.32600  95.66600   6.17200   90.00000    .00000    .58200    55   56   57    301
    57 122.08600  49.32600 101.83800   6.17200   90.00000    .00000    .58200    56   57   58    301
    58 122.08600  49.32600 108.01000   6.17200   90.00000    .00000    .58200    57   58   59    301
    59 122.08600  49.32600 114.18200   6.17200   90.00000    .00000    .58200    58   59   60    301
    60 122.08600  49.32600 120.35400   6.17200   90.00000    .00000    .58200    59   60    0    301
    61 183.12900  73.98900   3.08600   6.17200   90.00000    .00000    .58200    61   61   62    401
    62 183.12900  73.98900   9.25800   6.17200   90.00000    .00000    .58200    61   62   63    401
    63 183.12900  73.98900  15.43000   6.17200   90.00000    .00000    .58200    62   63   64    401
    64 183.12900  73.98900  21.60200   6.17200   90.00000    .00000    .58200    63   64   65    401
    65 183.12900  73.98900  27.77400   6.17200   90.00000    .00000    .58200    64   65   66    401
    66 183.12900  73.98900  33.94600   6.17200   90.00000    .00000    .58200    65   66   67    401
    67 183.12900  73.98900  40.11800   6.17200   90.00000    .00000    .58200    66   67   68    401
    68 183.12900  73.98900  46.29000   6.17200   90.00000    .00000    .58200    67   68   69    401
    69 183.12900  73.98900  52.46200   6.17200   90.00000    .00000    .58200    68   69   70    401
    70 183.12900  73.98900  58.63400   6.17200   90.00000    .00000    .58200    69   70   71    401
    71 183.12900  73.98900  64.80600   6.17200   90.00000    .00000    .58200    70   71   72    401
    72 183.12900  73.98900  70.97800   6.17200   90.00000    .00000    .58200    71   72   73    401
    73 183.12900  73.98900  77.15000   6.17200   90.00000    .00000    .58200    72   73   74    401
    74 183.12900  73.98900  83.32200   6.17200   90.00000    .00000    .58200    73   74   75    401
    75 183.12900  73.98900  89.49400   6.17200   90.00000    .00000    .58200    74   75   76    401
    76 183.12900  73.98900  95.66600   6.17200   90.00000    .00000    .58200    75   76   77    401
    77 183.12900  73.98900 101.83800   6.17200   90.00000    .00000    .58200    76   77   78    401
    78 183.12900  73.98900 108.01000   6.17200   90.00000    .00000    .58200    77   78   79    401
    79 183.12900  73.98900 114.18200   6.17200   90.00000    .00000    .58200    78   79   80    401
    80 183.12900  73.98900 120.35400   6.17200   90.00000    .00000    .58200    79   80    0    401
    81  -3.13500 -59.81100   3.08600   6.17200   90.00000    .00000    .58200    81   81   82    501
    82  -3.13500 -59.81100   9.25800   6.17200   90.00000    .00000    .58200    81   82   83    501
    83  -3.13500 -59.81100  15.43000   6.17200   90.00000    .00000    .58200    82   83   84    501
    84  -3.13500 -59.81100  21.60200   6.17200   90.00000    .00000    .58200    83   84   85    501
    85  -3.13500 -59.81100  27.77400   6.17200   90.00000    .00000    .58200    84   85   86    501
    86  -3.13500 -59.81100  33.94600   6.17200   90.00000    .00000    .58200    85   86   87    501
    87  -3.13500 -59.81100  40.11800   6.17200   90.00000    .00000    .58200    86   87   88    501
    88  -3.13500 -59.81100  46.29000   6.17200   90.00000    .00000    .58200    87   88   89    501
    89  -3.13500 -59.81100  52.46200   6.17200   90.00000    .00000    .58200    88   89   90    501
    90  -3.13500 -59.81100  58.63400   6.17200   90.00000    .00000    .58200    89   90   91    501
    91  -3.13500 -59.81100  64.80600   6.17200   90.00000    .00000    .58200    90   91   92    501
    92  -3.13500 -59.81100  70.97800   6.17200   90.00000    .00000    .58200    91   92   93    501
    93  -3.13500 -59.81100  77.15000   6.17200   90.00000    .00000    .58200    92   93   94    501
    94  -3.13500 -59.81100  83.32200   6.17200   90.00000    .00000    .58200    93   94   95    501
    95  -3.13500 -59.81100  89.49400   6.17200   90.00000    .00000    .58200    94   95   96    501
    96  -3.13500 -59.81100  95.66600   6.17200   90.00000    .00000    .58200    95   96   97    501
    97  -3.13500 -59.81100 101.83800   6.17200   90.00000    .00000    .58200    96   97   98    501
    98  -3.13500 -59.81100 108.01000   6.17200   90.00000    .00000    .58200    97   98   99    501
    99  -3.13500 -59.81100 114.18200   6.17200   90.00000    .00000    .58200    98   99  100    501
   100  -3.13500 -59.81100 120.35400   6.17200   90.00000    .00000    .58200    99  100    0    501
   101  57.86700 -35.07300   3.08600   6.17200   90.00000    .00000    .58200   101  101  102    601
   102  57.86700 -35.07300   9.25800   6.17200   90.00000    .00000    .58200   101  102  103    601
   103  57.86700 -35.07300  15.43000   6.17200   90.00000    .00000    .58200   102  103  104    601
   104  57.86700 -35.07300  21.60200   6.17200   90.00000    .00000    .58200   103  104  105    601
   105  57.86700 -35.07300  27.77400   6.17200   90.00000    .00000    .58200   104  105  106    601
   106  57.86700 -35.07300  33.94600   6.17200   90.00000    .00000    .58200   105  106  107    601
   107  57.86700 -35.07300  40.11800   6.17200   90.00000    .00000    .58200   106  107  108    601
   108  57.86700 -35.07300  46.29000   6.17200   90.00000    .00000    .58200   107  108  109    601
   109  57.86700 -35.07300  52.46200   6.17200   90.00000    .00000    .58200   108  109  110    601
   110  57.86700 -35.07300  58.63400   6.17200   90.00000    .00000    .58200   109  110  111    601
   111  57.86700 -35.07300  64.80600   6.17200   90.00000    .00000    .58200   110  111  112    601
   112  57.86700 -35.07300  70.97800   6.17200   90.00000    .00000    .58200   111  112  113    601
   113  57.86700 -35.07300  77.15000   6.17200   90.00000    .00000    .58200   112  113  114    601
   114  57.86700 -35.07300  83.32200   6.17200   90.00000    .00000    .58200   113  114  115    601
   115  57.86700 -35.07300  89.49400   6.17200   90.00000    .00000    .58200   114  115  116    601
   116  57.86700 -35.07300  95.66600   6.17200   90.00000    .00000    .58200   115  116  117    601
   117  57.86700 -35.07300 101.83800   6.17200   90.00000    .00000    .58200   116  117  118    601
   118  57.86700 -35.07300 108.01000   6.17200   90.00000    .00000    .58200   117  118  119    601
   119  57.86700 -35.07300 114.18200   6.17200   90.00000    .00000    .58200   118  119  120    601
   120  57.86700 -35.07300 120.35400   6.17200   90.00000    .00000    .58200   119  120    0    601
   121 119.02400 -10.45500   3.08600   6.17200   90.00000    .00000    .58200   121  121  122    701
   122 119.02400 -10.45500   9.25800   6.17200   90.00000    .00000    .58200   121  122  123    701
   123 119.02400 -10.45500  15.43000   6.17200   90.00000    .00000    .58200   122  123  124    701
   124 119.02400 -10.45500  21.60200   6.17200   90.00000    .00000    .58200   123  124  125    701
   125 119.02400 -10.45500  27.77400   6.17200   90.00000    .00000    .58200   124  125  126    701
   126 119.02400 -10.45500  33.94600   6.17200   90.00000    .00000    .58200   125  126  127    701
   127 119.02400 -10.45500  40.11800   6.17200   90.00000    .00000    .58200   126  127  128    701
   128 119.02400 -10.45500  46.29000   6.17200   90.00000    .00000    .58200   127  128  129    701
   129 119.02400 -10.45500  52.46200   6.17200   90.00000    .00000    .58200   128  129  130    701
   130 119.02400 -10.45500  58.63400   6.17200   90.00000    .00000    .58200   129  130  131    701
   131 119.02400 -10.45500  64.80600   6.17200   90.00000    .00000    .58200   130  131  132    701
   132 119.02400 -10.45500  70.97800   6.17200   90.00000    .00000    .58200   131  132  133    701
   133 119.02400 -10.45500  77.15000   6.17200   90.00000    .00000    .58200   132  133  134    701
   134 119.02400 -10.45500  83.32200   6.17200   90.00000    .00000    .58200   133  134  135    701
   135 119.02400 -10.45500  89.49400   6.17200   90.00000    .00000    .58200   134  135  136    701
   136 119.02400 -10.45500  95.66600   6.17200   90.00000    .00000    .58200   135  136  137    701
   137 119.02400 -10.45500 101.83800   6.17200   90.00000    .00000    .58200   136  137  138    701
   138 119.02400 -10.45500 108.01000   6.17200   90.00000    .00000    .58200   137  138  139    701
   139 119.02400 -10.45500 114.18200   6.17200   90.00000    .00000    .58200   138  139  140    701
   140 119.02400 -10.45500 120.35400   6.17200   90.00000    .00000    .58200   139  140    0    701
   141 179.88100  14.22000   3.08600   6.17200   90.00000    .00000    .58200   141  141  142    801
   142 179.88100  14.22000   9.25800   6.17200   90.00000    .00000    .58200   141  142  143    801
   143 179.88100  14.22000  15.43000   6.17200   90.00000    .00000    .58200   142  143  144    801
   144 179.88100  14.22000  21.60200   6.17200   90.00000    .00000    .58200   143  144  145    801
   145 179.88100  14.22000  27.77400   6.17200   90.00000    .00000    .58200   144  145  146    801
   146 179.88100  14.22000  33.94600   6.17200   90.00000    .00000    .58200   145  146  147    801
   147 179.88100  14.22000  40.11800   6.17200   90.00000    .00000    .58200   146  147  148    801
   148 179.88100  14.22000  46.29000   6.17200   90.00000    .00000    .58200   147  148  149    801
   149 179.88100  14.22000  52.46200   6.17200   90.00000    .00000    .58200   148  149  150    801
   150 179.88100  14.22000  58.63400   6.17200   90.00000    .00000    .58200   149  150  151    801
   151 179.88100  14.22000  64.80600   6.17200   90.00000    .00000    .58200   150  151  152    801
   152 179.88100  14.22000  70.97800   6.17200   90.00000    .00000    .58200   151  152  153    801
   153 179.88100  14.22000  77.15000   6.17200   90.00000    .00000    .58200   152  153  154    801
   154 179.88100  14.22000  83.32200   6.17200   90.00000    .00000    .58200   153  154  155    801
   155 179.88100  14.22000  89.49400   6.17200   90.00000    .00000    .58200   154  155  156    801
   156 179.88100  14.22000  95.66600   6.17200   90.00000    .00000    .58200   155  156  157    801
   157 179.88100  14.22000 101.83800   6.17200   90.00000    .00000    .58200   156  157  158    801
   158 179.88100  14.22000 108.01000   6.17200   90.00000    .00000    .58200   157  158  159    801
   159 179.88100  14.22000 114.18200   6.17200   90.00000    .00000    .58200   158  159  160    801
   160 179.88100  14.22000 120.35400   6.17200   90.00000    .00000    .58200   159  160    0    801






 ***** DATA CARD NO.  1   GN   1     0     0     0  0.00000E+00  0.00000E+00  0.00000E+00  0.00000E+00  0.00000E+00  0.00000E+00
 ***** DATA CARD NO.  2   FR   0     1     0     0  1.39000E+00  0.00000E+00  0.00000E+00  0.00000E+00  0.00000E+00  0.00000E+00
 ***** DATA CARD NO.  3   LD   0   101     1     1  0.00000E+00  1.50000E-05  0.00000E+00  0.00000E+00  0.00000E+00  0.00000E+00
 ***** DATA CARD NO.  4   LD   0   201     1     1  0.00000E+00  1.50000E-05  0.00000E+00  0.00000E+00  0.00000E+00  0.00000E+00
 ***** DATA CARD NO.  5   LD   0   301     1     1  0.00000E+00  1.50000E-05  0.00000E+00  0.00000E+00  0.00000E+00  0.00000E+00
 ***** DATA CARD NO.  6   LD   0   401     1     1  0.00000E+00  1.50000E-05  0.00000E+00  0.00000E+00  0.00000E+00  0.00000E+00
 ***** DATA CARD NO.  7   LD   0   501     1     1  0.00000E+00  1.50000E-05  0.00000E+00  0.00000E+00  0.00000E+00  0.00000E+00
 ***** DATA CARD NO.  8   LD   0   601     1     1  0.00000E+00  1.50000E-05  0.00000E+00  0.00000E+00  0.00000E+00  0.00000E+00
 ***** DATA CARD NO.  9   LD   0   801     1     1  0.00000E+00  1.50000E-05  0.00000E+00  0.00000E+00  0.00000E+00  0.00000E+00
 ***** DATA CARD NO. 10   EX   0   701     1     0  1.27946E+03  0.00000E+00  0.00000E+00  0.00000E+00  0.00000E+00  0.00000E+00
 ***** DATA CARD NO. 11   RP   0     1   361  1001  9.00000E+01  0.00000E+00  1.00000E+00  1.00000E+00  1.00000E+03  0.00000E+00




                                 - - - - - - FREQUENCY - - - - - -

                                    FREQUENCY= 1.3900E+00 MHZ
                                    WAVELENGTH= 2.1568E+02 METERS




                    APPROXIMATE INTEGRATION EMPLOYED FOR SEGMENTS MORE THAN   1.000 WAVELENGTHS APART



                               - - - STRUCTURE IMPEDANCE LOADING - - -


       LOCATION          RESISTANCE   INDUCTANCE  CAPACITANCE       IMPEDANCE (OHMS)     CONDUCTIVITY    TYPE
    ITAG FROM THRU          OHMS        HENRYS       FARADS        REAL      IMAGINARY    MHOS/METER

     101    1    1                   1.5000E-05               -3.2000E+01  -3.2000E+01  -3.2000E+01    SERIES 

     201    1    1                   1.5000E-05               -3.2000E+01  -3.2000E+01  -3.2000E+01    SERIES 

     301    1    1                   1.5000E-05               -3.2000E+01  -3.2000E+01  -3.2000E+01    SERIES 

     401    1    1                   1.5000E-05               -3.2000E+01  -3.2000E+01  -3.2000E+01    SERIES 

     501    1    1                   1.5000E-05               -3.2000E+01  -3.2000E+01  -3.2000E+01    SERIES 

     601    1    1                   1.5000E-05               -3.2000E+01  -3.2000E+01  -3.2000E+01    SERIES 

     801    1    1                   1.5000E-05               -3.2000E+01  -3.2000E+01  -3.2000E+01    SERIES 



                                  - - - ANTENNA ENVIRONMENT - - -

                                          PERFECT GROUND



                                - - - MATRIX TIMING - - -

                        FILL=     .000 SEC.,  FACTOR=     .000 SEC.



                                          - - - ANTENNA INPUT PARAMETERS - - -

   TAG   SEG.    VOLTAGE (VOLTS)         CURRENT (AMPS)         IMPEDANCE (OHMS)        ADMITTANCE (MHOS)      POWER
   NO.   NO.    REAL        IMAG.       REAL        IMAG.       REAL        IMAG.       REAL        IMAG.     (WATTS)
   701   121 1.27946E+03 0.00000E+00 1.56690E+00 3.97046E+00 1.10034E+02-2.78821E+02 1.22465E-03 3.10323E-03 1.00239E+03



                             - - - CURRENTS AND LOCATION - - -

                                 DISTANCES IN WAVELENGTHS


  SEG.  TAG    COORD. OF SEG. CENTER     SEG.            - - - CURRENT (AMPS) - - -
  NO.   NO.     X        Y        Z      LENGTH     REAL        IMAG.       MAG.        PHASE
     1  101    .0000    .0000    .0143   .02862  -4.8583E-01 -6.8095E-01  8.3649E-01 -125.507
     2  101    .0000    .0000    .0429   .02862  -4.0992E-01 -5.8319E-01  7.1285E-01 -125.103
     3  101    .0000    .0000    .0715   .02862  -3.2803E-01 -4.8522E-01  5.8569E-01 -124.061
     4  101    .0000    .0000    .1002   .02862  -2.4277E-01 -3.8978E-01  4.5920E-01 -121.916
     5  101    .0000    .0000    .1288   .02862  -1.5341E-01 -2.9456E-01  3.3211E-01 -117.511
     6  101    .0000    .0000    .1574   .02862  -6.1890E-02 -2.0065E-01  2.0998E-01 -107.142
     7  101    .0000    .0000    .1860   .02862   2.9189E-02 -1.0984E-01  1.1365E-01  -75.118
     8  101    .0000    .0000    .2146   .02862   1.1696E-01 -2.4152E-02  1.1942E-01  -11.668
     9  101    .0000    .0000    .2432   .02862   1.9847E-01  5.4361E-02  2.0578E-01   15.318
    10  101    .0000    .0000    .2719   .02862   2.7087E-01  1.2373E-01  2.9780E-01   24.550
    11  101    .0000    .0000    .3005   .02862   3.3152E-01  1.8217E-01  3.7827E-01   28.789
    12  101    .0000    .0000    .3291   .02862   3.7806E-01  2.2814E-01  4.4156E-01   31.109
    13  101    .0000    .0000    .3577   .02862   4.0853E-01  2.6041E-01  4.8447E-01   32.515
    14  101    .0000    .0000    .3863   .02862   4.2143E-01  2.7810E-01  5.0492E-01   33.420
    15  101    .0000    .0000    .4149   .02862   4.1572E-01  2.8066E-01  5.0159E-01   34.024
    16  101    .0000    .0000    .4435   .02862   3.9082E-01  2.6793E-01  4.7384E-01   34.432
    17  101    .0000    .0000    .4722   .02862   3.4656E-01  2.4002E-01  4.2156E-01   34.706
    18  101    .0000    .0000    .5008   .02862   2.8294E-01  1.9725E-01  3.4491E-01   34.881
    19  101    .0000    .0000    .5294   .02862   1.9969E-01  1.3972E-01  2.4372E-01   34.980
    20  101    .0000    .0000    .5580   .02862   8.9042E-02  6.2380E-02  1.0872E-01   35.014
    21  201    .2830    .1143    .0143   .02862   1.0712E+00 -8.5551E-01  1.3709E+00  -38.614
    22  201    .2830    .1143    .0429   .02862   9.1978E-01 -7.2453E-01  1.1709E+00  -38.228
    23  201    .2830    .1143    .0715   .02862   7.7037E-01 -5.8566E-01  9.6771E-01  -37.243
    24  201    .2830    .1143    .1002   .02862   6.2705E-01 -4.4339E-01  7.6797E-01  -35.264
    25  201    .2830    .1143    .1288   .02862   4.8585E-01 -2.9623E-01  5.6904E-01  -31.371
    26  201    .2830    .1143    .1574   .02862   3.4813E-01 -1.4733E-01  3.7803E-01  -22.938
    27  201    .2830    .1143    .1860   .02862   2.1622E-01 -8.6160E-04  2.1622E-01    -.228
    28  201    .2830    .1143    .2146   .02862   9.2766E-02  1.3863E-01  1.6681E-01   56.211
    29  201    .2830    .1143    .2432   .02862  -1.9579E-02  2.6661E-01  2.6732E-01   94.200
    30  201    .2830    .1143    .2719   .02862  -1.1832E-01  3.7878E-01  3.9683E-01  107.348
    31  201    .2830    .1143    .3005   .02862  -2.0127E-01  4.7134E-01  5.1252E-01  113.124
    32  201    .2830    .1143    .3291   .02862  -2.6661E-01  5.4107E-01  6.0319E-01  116.231
    33  201    .2830    .1143    .3577   .02862  -3.1295E-01  5.8549E-01  6.6388E-01  118.125
    34  201    .2830    .1143    .3863   .02862  -3.3940E-01  6.0291E-01  6.9188E-01  119.377
    35  201    .2830    .1143    .4149   .02862  -3.4557E-01  5.9246E-01  6.8587E-01  120.254
    36  201    .2830    .1143    .4435   .02862  -3.3151E-01  5.5401E-01  6.4562E-01  120.896
    37  201    .2830    .1143    .4722   .02862  -2.9770E-01  4.8811E-01  5.7173E-01  121.379
    38  201    .2830    .1143    .5008   .02862  -2.4483E-01  3.9560E-01  4.6523E-01  121.752
    39  201    .2830    .1143    .5294   .02862  -1.7335E-01  2.7695E-01  3.2673E-01  122.043
    40  201    .2830    .1143    .5580   .02862  -7.7300E-02  1.2244E-01  1.4480E-01  122.264
    41  301    .5660    .2287    .0143   .02862   1.2598E+00 -6.4969E-01  1.4175E+00  -27.280
    42  301    .5660    .2287    .0429   .02862   1.0805E+00 -5.4591E-01  1.2106E+00  -26.805
    43  301    .5660    .2287    .0715   .02862   9.0226E-01 -4.3215E-01  1.0004E+00  -25.593
    44  301    .5660    .2287    .1002   .02862   7.3013E-01 -3.1245E-01  7.9418E-01  -23.168
    45  301    .5660    .2287    .1288   .02862   5.5965E-01 -1.8653E-01  5.8991E-01  -18.433
    46  301    .5660    .2287    .1574   .02862   3.9266E-01 -5.7772E-02  3.9689E-01   -8.370
    47  301    .5660    .2287    .1860   .02862   2.3220E-01  6.9590E-02  2.4241E-01   16.683
    48  301    .5660    .2287    .2146   .02862   8.1687E-02  1.9104E-01  2.0778E-01   66.849
    49  301    .5660    .2287    .2432   .02862  -5.5462E-02  3.0215E-01  3.0719E-01  100.401
    50  301    .5660    .2287    .2719   .02862  -1.7603E-01  3.9877E-01  4.3589E-01  113.818
    51  301    .5660    .2287    .3005   .02862  -2.7716E-01  4.7729E-01  5.5193E-01  120.144
    52  301    .5660    .2287    .3291   .02862  -3.5649E-01  5.3473E-01  6.4267E-01  123.690
    53  301    .5660    .2287    .3577   .02862  -4.1220E-01  5.6885E-01  7.0250E-01  125.928
    54  301    .5660    .2287    .3863   .02862  -4.4310E-01  5.7822E-01  7.2847E-01  127.463
    55  301    .5660    .2287    .4149   .02862  -4.4859E-01  5.6223E-01  7.1926E-01  128.586
    56  301    .5660    .2287    .4435   .02862  -4.2872E-01  5.2102E-01  6.7473E-01  129.449
    57  301    .5660    .2287    .4722   .02862  -3.8400E-01  4.5537E-01  5.9567E-01  130.140
    58  301    .5660    .2287    .5008   .02862  -3.1524E-01  3.6635E-01  4.8331E-01  130.712
    59  301    .5660    .2287    .5294   .02862  -2.2295E-01  2.5472E-01  3.3851E-01  131.196
    60  301    .5660    .2287    .5580   .02862  -9.9354E-02  1.1190E-01  1.4964E-01  131.602
    61  401    .8491    .3430    .0143   .02862  -2.9526E-01 -8.5070E-01  9.0048E-01 -109.141
    62  401    .8491    .3430    .0429   .02862  -2.4627E-01 -7.2568E-01  7.6633E-01 -108.745
    63  401    .8491    .3430    .0715   .02862  -1.9096E-01 -5.9768E-01  6.2744E-01 -107.719
    64  401    .8491    .3430    .1002   .02862  -1.3126E-01 -4.7043E-01  4.8840E-01 -105.590
    65  401    .8491    .3430    .1288   .02862  -6.7217E-02 -3.4149E-01  3.4805E-01 -101.135
    66  401    .8491    .3430    .1574   .02862  -5.8909E-04 -2.1279E-01  2.1280E-01  -90.159
    67  401    .8491    .3430    .1860   .02862   6.6388E-02 -8.7196E-02  1.0959E-01  -52.716
    68  401    .8491    .3430    .2146   .02862   1.3128E-01  3.2093E-02  1.3514E-01   13.737
    69  401    .8491    .3430    .2432   .02862   1.9161E-01  1.4181E-01  2.3838E-01   36.505
    70  401    .8491    .3430    .2719   .02862   2.4500E-01  2.3881E-01  3.4213E-01   44.267
    71  401    .8491    .3430    .3005   .02862   2.8924E-01  3.2024E-01  4.3153E-01   47.912
    72  401    .8491    .3430    .3291   .02862   3.2243E-01  3.8362E-01  5.0112E-01   49.954
    73  401    .8491    .3430    .3577   .02862   3.4297E-01  4.2694E-01  5.4764E-01   51.225
    74  401    .8491    .3430    .3863   .02862   3.4968E-01  4.4873E-01  5.6889E-01   52.072
    75  401    .8491    .3430    .4149   .02862   3.4177E-01  4.4806E-01  5.6353E-01   52.665
    76  401    .8491    .3430    .4435   .02862   3.1886E-01  4.2457E-01  5.3098E-01   53.093
    77  401    .8491    .3430    .4722   .02862   2.8091E-01  3.7836E-01  4.7124E-01   53.408
    78  401    .8491    .3430    .5008   .02862   2.2803E-01  3.0977E-01  3.8465E-01   53.641
    79  401    .8491    .3430    .5294   .02862   1.6011E-01  2.1885E-01  2.7117E-01   53.811
    80  401    .8491    .3430    .5580   .02862   7.1066E-02  9.7551E-02  1.2069E-01   53.927
    81  501   -.0145   -.2773    .0143   .02862  -6.9039E-01 -4.6071E-01  8.2999E-01 -146.284
    82  501   -.0145   -.2773    .0429   .02862  -5.8575E-01 -3.9612E-01  7.0712E-01 -145.931
    83  501   -.0145   -.2773    .0715   .02862  -4.7568E-01 -3.3286E-01  5.8058E-01 -145.017
    84  501   -.0145   -.2773    .1002   .02862  -3.6356E-01 -2.7264E-01  4.5443E-01 -143.134
    85  501   -.0145   -.2773    .1288   .02862  -2.4787E-01 -2.1365E-01  3.2723E-01 -139.241
    86  501   -.0145   -.2773    .1574   .02862  -1.3077E-01 -1.5636E-01  2.0384E-01 -129.907
    87  501   -.0145   -.2773    .1860   .02862  -1.5267E-02 -1.0166E-01  1.0280E-01  -98.541
    88  501   -.0145   -.2773    .2146   .02862   9.5306E-02 -5.0548E-02  1.0788E-01  -27.941
    89  501   -.0145   -.2773    .2432   .02862   1.9755E-01 -4.0606E-03  1.9759E-01   -1.178
    90  501   -.0145   -.2773    .2719   .02862   2.8816E-01  3.6846E-02  2.9051E-01    7.287
    91  501   -.0145   -.2773    .3005   .02862   3.6413E-01  7.1321E-02  3.7105E-01   11.082
    92  501   -.0145   -.2773    .3291   .02862   4.2279E-01  9.8654E-02  4.3415E-01   13.134
    93  501   -.0145   -.2773    .3577   .02862   4.6195E-01  1.1831E-01  4.7686E-01   14.365
    94  501   -.0145   -.2773    .3863   .02862   4.7994E-01  1.2993E-01  4.9721E-01   15.148
    95  501   -.0145   -.2773    .4149   .02862   4.7566E-01  1.3336E-01  4.9400E-01   15.662
    96  501   -.0145   -.2773    .4435   .02862   4.4855E-01  1.2863E-01  4.6663E-01   16.001
    97  501   -.0145   -.2773    .4722   .02862   3.9854E-01  1.1593E-01  4.1506E-01   16.219
    98  501   -.0145   -.2773    .5008   .02862   3.2576E-01  9.5552E-02  3.3948E-01   16.348
    99  501   -.0145   -.2773    .5294   .02862   2.3003E-01  6.7726E-02  2.3980E-01   16.405
   100  501   -.0145   -.2773    .5580   .02862   1.0257E-01  3.0198E-02  1.0693E-01   16.404
   101  601    .2683   -.1626    .0143   .02862   1.2378E+00 -9.1124E-01  1.5370E+00  -36.360
   102  601    .2683   -.1626    .0429   .02862   1.0608E+00 -7.7203E-01  1.3120E+00  -36.046
   103  601    .2683   -.1626    .0715   .02862   8.8417E-01 -6.2471E-01  1.0826E+00  -35.243
   104  601    .2683   -.1626    .1002   .02862   7.1295E-01 -4.7410E-01  8.5619E-01  -33.623
   105  601    .2683   -.1626    .1288   .02862   5.4292E-01 -3.1862E-01  6.2951E-01  -30.408
   106  601    .2683   -.1626    .1574   .02862   3.7612E-01 -1.6164E-01  4.0938E-01  -23.256
   107  601    .2683   -.1626    .1860   .02862   2.1575E-01 -7.5799E-03  2.1588E-01   -2.012
   108  601    .2683   -.1626    .2146   .02862   6.5379E-02  1.3876E-01  1.5339E-01   64.771
   109  601    .2683   -.1626    .2432   .02862  -7.1419E-02  2.7260E-01  2.8180E-01  104.681
   110  601    .2683   -.1626    .2719   .02862  -1.9132E-01  3.8949E-01  4.3394E-01  116.161
   111  601    .2683   -.1626    .3005   .02862  -2.9141E-01  4.8549E-01  5.6623E-01  120.973
   112  601    .2683   -.1626    .3291   .02862  -3.6928E-01  5.5735E-01  6.6859E-01  123.527
   113  601    .2683   -.1626    .3577   .02862  -4.2317E-01  6.0261E-01  7.3635E-01  125.077
   114  601    .2683   -.1626    .3863   .02862  -4.5194E-01  6.1968E-01  7.6698E-01  126.104
   115  601    .2683   -.1626    .4149   .02862  -4.5514E-01  6.0783E-01  7.5935E-01  126.826
   116  601    .2683   -.1626    .4435   .02862  -4.3297E-01  5.6718E-01  7.1355E-01  127.358
   117  601    .2683   -.1626    .4722   .02862  -3.8616E-01  4.9851E-01  6.3058E-01  127.762
   118  601    .2683   -.1626    .5008   .02862  -3.1571E-01  4.0296E-01  5.1191E-01  128.078
   119  601    .2683   -.1626    .5294   .02862  -2.2238E-01  2.8130E-01  3.5859E-01  128.327
   120  601    .2683   -.1626    .5580   .02862  -9.8707E-02  1.2400E-01  1.5849E-01  128.521
   121  701    .5518   -.0485    .0143   .02862   1.5669E+00  3.9705E+00  4.2685E+00   68.464
   122  701    .5518   -.0485    .0429   .02862   1.5487E+00  2.6314E+00  3.0533E+00   59.521
   123  701    .5518   -.0485    .0715   .02862   1.5127E+00  1.3513E+00  2.0284E+00   41.775
   124  701    .5518   -.0485    .1002   .02862   1.4596E+00  1.6808E-01  1.4692E+00    6.569
   125  701    .5518   -.0485    .1288   .02862   1.3904E+00 -9.5468E-01  1.6866E+00  -34.475
   126  701    .5518   -.0485    .1574   .02862   1.3065E+00 -2.0051E+00  2.3932E+00  -56.912
   127  701    .5518   -.0485    .1860   .02862   1.2099E+00 -2.9632E+00  3.2007E+00  -67.790
   128  701    .5518   -.0485    .2146   .02862   1.1026E+00 -3.8067E+00  3.9632E+00  -73.847
   129  701    .5518   -.0485    .2432   .02862   9.8708E-01 -4.5143E+00  4.6210E+00  -77.666
   130  701    .5518   -.0485    .2719   .02862   8.6612E-01 -5.0672E+00  5.1407E+00  -80.300
   131  701    .5518   -.0485    .3005   .02862   7.4264E-01 -5.4502E+00  5.5005E+00  -82.241
   132  701    .5518   -.0485    .3291   .02862   6.1969E-01 -5.6525E+00  5.6864E+00  -83.744
   133  701    .5518   -.0485    .3577   .02862   5.0039E-01 -5.6683E+00  5.6903E+00  -84.955
   134  701    .5518   -.0485    .3863   .02862   3.8779E-01 -5.4965E+00  5.5102E+00  -85.964
   135  701    .5518   -.0485    .4149   .02862   2.8482E-01 -5.1413E+00  5.1492E+00  -86.829
   136  701    .5518   -.0485    .4435   .02862   1.9418E-01 -4.6111E+00  4.6151E+00  -87.589
   137  701    .5518   -.0485    .4722   .02862   1.1830E-01 -3.9176E+00  3.9194E+00  -88.270
   138  701    .5518   -.0485    .5008   .02862   5.9282E-02 -3.0738E+00  3.0744E+00  -88.895
   139  701    .5518   -.0485    .5294   .02862   1.8942E-02 -2.0889E+00  2.0890E+00  -89.480
   140  701    .5518   -.0485    .5580   .02862  -4.1488E-04 -8.9874E-01  8.9874E-01  -90.026
   141  801    .8340    .0659    .0143   .02862   1.1127E+00 -8.5057E-01  1.4006E+00  -37.395
   142  801    .8340    .0659    .0429   .02862   9.5410E-01 -7.1910E-01  1.1947E+00  -37.005
   143  801    .8340    .0659    .0715   .02862   7.9629E-01 -5.7864E-01  9.8432E-01  -36.005
   144  801    .8340    .0659    .1002   .02862   6.4373E-01 -4.3385E-01  7.7628E-01  -33.978
   145  801    .8340    .0659    .1288   .02862   4.9257E-01 -2.8352E-01  5.6834E-01  -29.924
   146  801    .8340    .0659    .1574   .02862   3.4451E-01 -1.3109E-01  3.6861E-01  -20.832
   147  801    .8340    .0659    .1860   .02862   2.0231E-01  1.8955E-02  2.0319E-01    5.353
   148  801    .8340    .0659    .2146   .02862   6.9041E-02  1.6176E-01  1.7588E-01   66.887
   149  801    .8340    .0659    .2432   .02862  -5.2209E-02  2.9252E-01  2.9715E-01  100.119
   150  801    .8340    .0659    .2719   .02862  -1.5857E-01  4.0673E-01  4.3654E-01  111.299
   151  801    .8340    .0659    .3005   .02862  -2.4752E-01  5.0038E-01  5.5825E-01  116.320
   152  801    .8340    .0659    .3291   .02862  -3.1698E-01  5.7018E-01  6.5237E-01  119.071
   153  801    .8340    .0659    .3577   .02862  -3.6540E-01  6.1362E-01  7.1417E-01  120.773
   154  801    .8340    .0659    .3863   .02862  -3.9177E-01  6.2904E-01  7.4106E-01  121.915
   155  801    .8340    .0659    .4149   .02862  -3.9569E-01  6.1569E-01  7.3188E-01  122.728
   156  801    .8340    .0659    .4435   .02862  -3.7728E-01  5.7364E-01  6.8659E-01  123.333
   157  801    .8340    .0659    .4722   .02862  -3.3715E-01  5.0363E-01  6.0606E-01  123.800
   158  801    .8340    .0659    .5008   .02862  -2.7612E-01  4.0678E-01  4.9164E-01  124.168
   159  801    .8340    .0659    .5294   .02862  -1.9480E-01  2.8381E-01  3.4423E-01  124.465
   160  801    .8340    .0659    .5580   .02862  -8.6590E-02  1.2505E-01  1.5211E-01  124.699



                                        - - - POWER BUDGET - - -

                                           INPUT POWER   = 1.0024E+03 WATTS
                                           RADIATED POWER= 1.0024E+03 WATTS
                                           STRUCTURE LOSS= 0.0000E+00 WATTS
                                           NETWORK LOSS  = 0.0000E+00 WATTS
                                           EFFICIENCY    = 100.00 PERCENT



                                                - - - RADIATION PATTERNS - - -
                                                      RANGE= 1.000000E+03 METERS
                                                      EXP(-JKR)/R= 1.00000E-03 AT PHASE-229.11 DEGREES


  - - ANGLES - -           - POWER GAINS -       - - - POLARIZATION - - -    - - - E(THETA) - - -    - - - E(PHI) - - -
  THETA     PHI        VERT.   HOR.    TOTAL      AXIAL     TILT   SENSE     MAGNITUDE    PHASE      MAGNITUDE    PHASE 
 DEGREES  DEGREES       DB      DB      DB        RATIO     DEG.              VOLTS/M    DEGREES      VOLTS/M    DEGREES
   90.00      .00       6.84 -999.99    6.84     .00000      .00  LINEAR    5.38570E-01  -374.27    0.00000E+00  -229.11
   90.00     1.00       6.83 -999.99    6.83     .00000      .00  LINEAR    5.38302E-01  -374.78    0.00000E+00  -229.11
   90.00     2.00       6.83 -999.99    6.83     .00000      .00  LINEAR    5.38105E-01  -375.35    0.00000E+00  -229.11
   90.00     3.00       6.83 -999.99    6.83     .00000      .00  LINEAR    5.37978E-01  -375.98    0.00000E+00  -229.11
   90.00     4.00       6.83 -999.99    6.83     .00000      .00  LINEAR    5.37916E-01  -376.67    0.00000E+00  -229.11
   90.00     5.00       6.83 -999.99    6.83     .00000      .00  LINEAR    5.37915E-01  -377.41    0.00000E+00  -229.11
   90.00     6.00       6.83 -999.99    6.83     .00000      .00  LINEAR    5.37971E-01  -378.22    0.00000E+00  -229.11
   90.00     7.00       6.83 -999.99    6.83     .00000      .00  LINEAR    5.38082E-01  -379.08    0.00000E+00  -229.11
   90.00     8.00       6.83 -999.99    6.83     .00000      .00  LINEAR    5.38243E-01  -380.01    0.00000E+00  -229.11
   90.00     9.00       6.83 -999.99    6.83     .00000      .00  LINEAR    5.38451E-01  -380.99    0.00000E+00  -229.11
   90.00    10.00       6.84 -999.99    6.84     .00000      .00  LINEAR    5.38702E-01  -382.02    0.00000E+00  -229.11
   90.00    11.00       6.84 -999.99    6.84     .00000      .00  LINEAR    5.38993E-01  -383.11    0.00000E+00  -229.11
   90.00    12.00       6.85 -999.99    6.85     .00000      .00  LINEAR    5.39321E-01  -384.26    0.00000E+00  -229.11
   90.00    13.00       6.85 -999.99    6.85     .00000      .00  LINEAR    5.39681E-01  -385.47    0.00000E+00  -229.11
   90.00    14.00       6.86 -999.99    6.86     .00000      .00  LINEAR    5.40072E-01  -386.73    0.00000E+00  -229.11
   90.00    15.00       6.87 -999.99    6.87     .00000      .00  LINEAR    5.40490E-01  -388.04    0.00000E+00  -229.11
   90.00    16.00       6.87 -999.99    6.87     .00000      .00  LINEAR    5.40933E-01  -389.41    0.00000E+00  -229.11
   90.00    17.00       6.88 -999.99    6.88     .00000      .00  LINEAR    5.41396E-01  -390.84    0.00000E+00  -229.11
   90.00    18.00       6.89 -999.99    6.89     .00000      .00  LINEAR    5.41879E-01  -392.31    0.00000E+00  -229.11
   90.00    19.00       6.90 -999.99    6.90     .00000      .00  LINEAR    5.42377E-01  -393.84    0.00000E+00  -229.11
   90.00    20.00       6.91 -999.99    6.91     .00000      .00  LINEAR    5.42890E-01  -395.43    0.00000E+00  -229.11
   90.00    21.00       6.91 -999.99    6.91     .00000      .00  LINEAR    5.43414E-01  -397.06    0.00000E+00  -229.11
   90.00    22.00       6.92 -999.99    6.92     .00000      .00  LINEAR    5.43947E-01  -398.75    0.00000E+00  -229.11
   90.00    23.00       6.93 -999.99    6.93     .00000      .00  LINEAR    5.44487E-01  -400.48    0.00000E+00  -229.11
   90.00    24.00       6.94 -999.99    6.94     .00000      .00  LINEAR    5.45033E-01  -402.27    0.00000E+00  -229.11
   90.00    25.00       6.95 -999.99    6.95     .00000      .00  LINEAR    5.45582E-01  -404.11    0.00000E+00  -229.11
   90.00    26.00       6.96 -999.99    6.96     .00000      .00  LINEAR    5.46133E-01  -406.00    0.00000E+00  -229.11
   90.00    27.00       6.97 -999.99    6.97     .00000      .00  LINEAR    5.46683E-01  -407.93    0.00000E+00  -229.11
   90.00    28.00       6.97 -999.99    6.97     .00000      .00  LINEAR    5.47232E-01   -49.91    0.00000E+00  -229.11
   90.00    29.00       6.98 -999.99    6.98     .00000      .00  LINEAR    5.47777E-01   -51.95    0.00000E+00  -229.11
   90.00    30.00       6.99 -999.99    6.99     .00000      .00  LINEAR    5.48317E-01   -54.02    0.00000E+00  -229.11
   90.00    31.00       7.00 -999.99    7.00     .00000      .00  LINEAR    5.48851E-01   -56.15    0.00000E+00  -229.11
   90.00    32.00       7.01 -999.99    7.01     .00000      .00  LINEAR    5.49376E-01   -58.32    0.00000E+00  -229.11
   90.00    33.00       7.02 -999.99    7.02     .00000      .00  LINEAR    5.49893E-01   -60.53    0.00000E+00  -229.11
   90.00    34.00       7.02 -999.99    7.02     .00000      .00  LINEAR    5.50398E-01   -62.79    0.00000E+00  -229.11
   90.00    35.00       7.03 -999.99    7.03     .00000      .00  LINEAR    5.50892E-01   -65.09    0.00000E+00  -229.11
   90.00    36.00       7.04 -999.99    7.04     .00000      .00  LINEAR    5.51371E-01   -67.43    0.00000E+00  -229.11
   90.00    37.00       7.05 -999.99    7.05     .00000      .00  LINEAR    5.51836E-01   -69.82    0.00000E+00  -229.11
   90.00    38.00       7.05 -999.99    7.05     .00000      .00  LINEAR    5.52284E-01   -72.25    0.00000E+00  -229.11
   90.00    39.00       7.06 -999.99    7.06     .00000      .00  LINEAR    5.52714E-01   -74.71    0.00000E+00  -229.11
   90.00    40.00       7.07 -999.99    7.07     .00000      .00  LINEAR    5.53125E-01   -77.22    0.00000E+00  -229.11
   90.00    41.00       7.07 -999.99    7.07     .00000      .00  LINEAR    5.53515E-01   -79.76    0.00000E+00  -229.11
   90.00    42.00       7.08 -999.99    7.08     .00000      .00  LINEAR    5.53882E-01   -82.34    0.00000E+00  -229.11
   90.00    43.00       7.08 -999.99    7.08     .00000      .00  LINEAR    5.54225E-01   -84.96    0.00000E+00  -229.11
   90.00    44.00       7.09 -999.99    7.09     .00000      .00  LINEAR    5.54542E-01   -87.61    0.00000E+00  -229.11
   90.00    45.00       7.09 -999.99    7.09     .00000      .00  LINEAR    5.54832E-01   -90.30    0.00000E+00  -229.11
   90.00    46.00       7.10 -999.99    7.10     .00000      .00  LINEAR    5.55092E-01   -93.02    0.00000E+00  -229.11
   90.00    47.00       7.10 -999.99    7.10     .00000      .00  LINEAR    5.55321E-01   -95.78    0.00000E+00  -229.11
   90.00    48.00       7.11 -999.99    7.11     .00000      .00  LINEAR    5.55517E-01   -98.56    0.00000E+00  -229.11
   90.00    49.00       7.11 -999.99    7.11     .00000      .00  LINEAR    5.55679E-01  -101.38    0.00000E+00  -229.11
   90.00    50.00       7.11 -999.99    7.11     .00000      .00  LINEAR    5.55804E-01  -104.22    0.00000E+00  -229.11
   90.00    51.00       7.11 -999.99    7.11     .00000      .00  LINEAR    5.55890E-01  -107.10    0.00000E+00  -229.11
   90.00    52.00       7.11 -999.99    7.11     .00000      .00  LINEAR    5.55936E-01  -110.00    0.00000E+00  -229.11
   90.00    53.00       7.11 -999.99    7.11     .00000      .00  LINEAR    5.55940E-01  -112.93    0.00000E+00  -229.11
   90.00    54.00       7.11 -999.99    7.11     .00000      .00  LINEAR    5.55899E-01  -115.89    0.00000E+00  -229.11
   90.00    55.00       7.11 -999.99    7.11     .00000      .00  LINEAR    5.55812E-01  -118.87    0.00000E+00  -229.11
   90.00    56.00       7.11 -999.99    7.11     .00000      .00  LINEAR    5.55676E-01  -121.88    0.00000E+00  -229.11
   90.00    57.00       7.10 -999.99    7.10     .00000      .00  LINEAR    5.55491E-01  -124.91    0.00000E+00  -229.11
   90.00    58.00       7.10 -999.99    7.10     .00000      .00  LINEAR    5.55253E-01  -127.96    0.00000E+00  -229.11
   90.00    59.00       7.10 -999.99    7.10     .00000      .00  LINEAR    5.54962E-01  -131.03    0.00000E+00  -229.11
   90.00    60.00       7.09 -999.99    7.09     .00000      .00  LINEAR    5.54615E-01  -134.12    0.00000E+00  -229.11
   90.00    61.00       7.08 -999.99    7.08     .00000      .00  LINEAR    5.54211E-01  -137.23    0.00000E+00  -229.11
   90.00    62.00       7.08 -999.99    7.08     .00000      .00  LINEAR    5.53748E-01  -140.36    0.00000E+00  -229.11
   90.00    63.00       7.07 -999.99    7.07     .00000      .00  LINEAR    5.53224E-01  -143.51    0.00000E+00  -229.11
   90.00    64.00       7.06 -999.99    7.06     .00000      .00  LINEAR    5.52640E-01  -146.67    0.00000E+00  -229.11
   90.00    65.00       7.05 -999.99    7.05     .00000      .00  LINEAR    5.51992E-01  -149.85    0.00000E+00  -229.11
   90.00    66.00       7.04 -999.99    7.04     .00000      .00  LINEAR    5.51280E-01  -153.04    0.00000E+00  -229.11
   90.00    67.00       7.03 -999.99    7.03     .00000      .00  LINEAR    5.50503E-01  -156.24    0.00000E+00  -229.11
   90.00    68.00       7.01 -999.99    7.01     .00000      .00  LINEAR    5.49660E-01  -159.46    0.00000E+00  -229.11
   90.00    69.00       7.00 -999.99    7.00     .00000      .00  LINEAR    5.48750E-01  -162.69    0.00000E+00  -229.11
   90.00    70.00       6.98 -999.99    6.98     .00000      .00  LINEAR    5.47773E-01  -165.93    0.00000E+00  -229.11
   90.00    71.00       6.97 -999.99    6.97     .00000      .00  LINEAR    5.46729E-01  -169.17    0.00000E+00  -229.11
   90.00    72.00       6.95 -999.99    6.95     .00000      .00  LINEAR    5.45618E-01  -172.43    0.00000E+00  -229.11
   90.00    73.00       6.93 -999.99    6.93     .00000      .00  LINEAR    5.44439E-01  -175.69    0.00000E+00  -229.11
   90.00    74.00       6.91 -999.99    6.91     .00000      .00  LINEAR    5.43193E-01  -178.96    0.00000E+00  -229.11
   90.00    75.00       6.89 -999.99    6.89     .00000      .00  LINEAR    5.41880E-01  -182.24    0.00000E+00  -229.11
   90.00    76.00       6.87 -999.99    6.87     .00000      .00  LINEAR    5.40501E-01  -185.51    0.00000E+00  -229.11
   90.00    77.00       6.84 -999.99    6.84     .00000      .00  LINEAR    5.39057E-01  -188.80    0.00000E+00  -229.11
   90.00    78.00       6.82 -999.99    6.82     .00000      .00  LINEAR    5.37549E-01  -192.08    0.00000E+00  -229.11
   90.00    79.00       6.79 -999.99    6.79     .00000      .00  LINEAR    5.35979E-01  -195.37    0.00000E+00  -229.11
   90.00    80.00       6.77 -999.99    6.77     .00000      .00  LINEAR    5.34347E-01  -198.66    0.00000E+00  -229.11
   90.00    81.00       6.74 -999.99    6.74     .00000      .00  LINEAR    5.32657E-01  -201.95    0.00000E+00  -229.11
   90.00    82.00       6.71 -999.99    6.71     .00000      .00  LINEAR    5.30910E-01  -205.23    0.00000E+00  -229.11
   90.00    83.00       6.68 -999.99    6.68     .00000      .00  LINEAR    5.29108E-01  -208.52    0.00000E+00  -229.11
   90.00    84.00       6.65 -999.99    6.65     .00000      .00  LINEAR    5.27253E-01  -211.80    0.00000E+00  -229.11
   90.00    85.00       6.62 -999.99    6.62     .00000      .00  LINEAR    5.25350E-01  -215.08    0.00000E+00  -229.11
   90.00    86.00       6.59 -999.99    6.59     .00000      .00  LINEAR    5.23400E-01  -218.36    0.00000E+00  -229.11
   90.00    87.00       6.55 -999.99    6.55     .00000      .00  LINEAR    5.21407E-01  -221.63    0.00000E+00  -229.11
   90.00    88.00       6.52 -999.99    6.52     .00000      .00  LINEAR    5.19374E-01  -224.89    0.00000E+00  -229.11
   90.00    89.00       6.49 -999.99    6.49     .00000      .00  LINEAR    5.17306E-01  -228.15    0.00000E+00  -229.11
   90.00    90.00       6.45 -999.99    6.45     .00000      .00  LINEAR    5.15205E-01  -231.40    0.00000E+00  -229.11
   90.00    91.00       6.41 -999.99    6.41     .00000      .00  LINEAR    5.13076E-01  -234.64    0.00000E+00  -229.11
   90.00    92.00       6.38 -999.99    6.38     .00000      .00  LINEAR    5.10924E-01  -237.88    0.00000E+00  -229.11
   90.00    93.00       6.34 -999.99    6.34     .00000      .00  LINEAR    5.08753E-01  -241.11    0.00000E+00  -229.11
   90.00    94.00       6.30 -999.99    6.30     .00000      .00  LINEAR    5.06567E-01  -244.32    0.00000E+00  -229.11
   90.00    95.00       6.27 -999.99    6.27     .00000      .00  LINEAR    5.04372E-01  -247.53    0.00000E+00  -229.11
   90.00    96.00       6.23 -999.99    6.23     .00000      .00  LINEAR    5.02173E-01  -250.72    0.00000E+00  -229.11
   90.00    97.00       6.19 -999.99    6.19     .00000      .00  LINEAR    4.99974E-01  -253.91    0.00000E+00  -229.11
   90.00    98.00       6.15 -999.99    6.15     .00000      .00  LINEAR    4.97782E-01  -257.08    0.00000E+00  -229.11
   90.00    99.00       6.11 -999.99    6.11     .00000      .00  LINEAR    4.95602E-01  -260.24    0.00000E+00  -229.11
   90.00   100.00       6.08 -999.99    6.08     .00000      .00  LINEAR    4.93438E-01  -263.39    0.00000E+00  -229.11
   90.00   101.00       6.04 -999.99    6.04     .00000      .00  LINEAR    4.91299E-01  -266.52    0.00000E+00  -229.11
   90.00   102.00       6.00 -999.99    6.00     .00000      .00  LINEAR    4.89188E-01  -269.64    0.00000E+00  -229.11
   90.00   103.00       5.96 -999.99    5.96     .00000      .00  LINEAR    4.87112E-01  -272.75    0.00000E+00  -229.11
   90.00   104.00       5.93 -999.99    5.93     .00000      .00  LINEAR    4.85077E-01  -275.84    0.00000E+00  -229.11
   90.00   105.00       5.89 -999.99    5.89     .00000      .00  LINEAR    4.83089E-01  -278.92    0.00000E+00  -229.11
   90.00   106.00       5.86 -999.99    5.86     .00000      .00  LINEAR    4.81154E-01  -281.98    0.00000E+00  -229.11
   90.00   107.00       5.82 -999.99    5.82     .00000      .00  LINEAR    4.79278E-01  -285.03    0.00000E+00  -229.11
   90.00   108.00       5.79 -999.99    5.79     .00000      .00  LINEAR    4.77467E-01  -288.07    0.00000E+00  -229.11
   90.00   109.00       5.76 -999.99    5.76     .00000      .00  LINEAR    4.75727E-01  -291.09    0.00000E+00  -229.11
   90.00   110.00       5.73 -999.99    5.73     .00000      .00  LINEAR    4.74064E-01  -294.09    0.00000E+00  -229.11
   90.00   111.00       5.70 -999.99    5.70     .00000      .00  LINEAR    4.72485E-01  -297.07    0.00000E+00  -229.11
   90.00   112.00       5.67 -999.99    5.67     .00000      .00  LINEAR    4.70993E-01  -300.04    0.00000E+00  -229.11
   90.00   113.00       5.65 -999.99    5.65     .00000      .00  LINEAR    4.69596E-01  -303.00    0.00000E+00  -229.11
   90.00   114.00       5.62 -999.99    5.62     .00000      .00  LINEAR    4.68299E-01  -305.94    0.00000E+00  -229.11
   90.00   115.00       5.60 -999.99    5.60     .00000      .00  LINEAR    4.67107E-01  -308.86    0.00000E+00  -229.11
   90.00   116.00       5.58 -999.99    5.58     .00000      .00  LINEAR    4.66025E-01  -311.76    0.00000E+00  -229.11
   90.00   117.00       5.56 -999.99    5.56     .00000      .00  LINEAR    4.65057E-01  -314.64    0.00000E+00  -229.11
   90.00   118.00       5.55 -999.99    5.55     .00000      .00  LINEAR    4.64209E-01  -317.51    0.00000E+00  -229.11
   90.00   119.00       5.53 -999.99    5.53     .00000      .00  LINEAR    4.63485E-01  -320.36    0.00000E+00  -229.11
   90.00   120.00       5.52 -999.99    5.52     .00000      .00  LINEAR    4.62888E-01  -323.18    0.00000E+00  -229.11
   90.00   121.00       5.51 -999.99    5.51     .00000      .00  LINEAR    4.62423E-01  -325.99    0.00000E+00  -229.11
   90.00   122.00       5.51 -999.99    5.51     .00000      .00  LINEAR    4.62093E-01  -328.78    0.00000E+00  -229.11
   90.00   123.00       5.50 -999.99    5.50     .00000      .00  LINEAR    4.61900E-01  -331.54    0.00000E+00  -229.11
   90.00   124.00       5.50 -999.99    5.50     .00000      .00  LINEAR    4.61847E-01  -334.29    0.00000E+00  -229.11
   90.00   125.00       5.50 -999.99    5.50     .00000      .00  LINEAR    4.61936E-01  -337.00    0.00000E+00  -229.11
   90.00   126.00       5.51 -999.99    5.51     .00000      .00  LINEAR    4.62169E-01  -339.70    0.00000E+00  -229.11
   90.00   127.00       5.51 -999.99    5.51     .00000      .00  LINEAR    4.62547E-01  -342.37    0.00000E+00  -229.11
   90.00   128.00       5.52 -999.99    5.52     .00000      .00  LINEAR    4.63071E-01  -345.01    0.00000E+00  -229.11
   90.00   129.00       5.54 -999.99    5.54     .00000      .00  LINEAR    4.63740E-01  -347.63    0.00000E+00  -229.11
   90.00   130.00       5.55 -999.99    5.55     .00000      .00  LINEAR    4.64554E-01  -350.22    0.00000E+00  -229.11
   90.00   131.00       5.57 -999.99    5.57     .00000      .00  LINEAR    4.65513E-01  -352.78    0.00000E+00  -229.11
   90.00   132.00       5.59 -999.99    5.59     .00000      .00  LINEAR    4.66615E-01  -355.30    0.00000E+00  -229.11
   90.00   133.00       5.61 -999.99    5.61     .00000      .00  LINEAR    4.67858E-01  -357.80    0.00000E+00  -229.11
   90.00   134.00       5.64 -999.99    5.64     .00000      .00  LINEAR    4.69239E-01  -360.26    0.00000E+00  -229.11
   90.00   135.00       5.67 -999.99    5.67     .00000      .00  LINEAR    4.70755E-01  -362.68    0.00000E+00  -229.11
   90.00   136.00       5.70 -999.99    5.70     .00000      .00  LINEAR    4.72403E-01  -365.07    0.00000E+00  -229.11
   90.00   137.00       5.73 -999.99    5.73     .00000      .00  LINEAR    4.74178E-01  -367.42    0.00000E+00  -229.11
   90.00   138.00       5.76 -999.99    5.76     .00000      .00  LINEAR    4.76075E-01  -369.73    0.00000E+00  -229.11
   90.00   139.00       5.80 -999.99    5.80     .00000      .00  LINEAR    4.78090E-01  -372.00    0.00000E+00  -229.11
   90.00   140.00       5.84 -999.99    5.84     .00000      .00  LINEAR    4.80217E-01  -374.22    0.00000E+00  -229.11
   90.00   141.00       5.88 -999.99    5.88     .00000      .00  LINEAR    4.82449E-01  -376.41    0.00000E+00  -229.11
   90.00   142.00       5.92 -999.99    5.92     .00000      .00  LINEAR    4.84779E-01  -378.54    0.00000E+00  -229.11
   90.00   143.00       5.97 -999.99    5.97     .00000      .00  LINEAR    4.87202E-01  -380.63    0.00000E+00  -229.11
   90.00   144.00       6.01 -999.99    6.01     .00000      .00  LINEAR    4.89709E-01  -382.67    0.00000E+00  -229.11
   90.00   145.00       6.06 -999.99    6.06     .00000      .00  LINEAR    4.92294E-01  -384.66    0.00000E+00  -229.11
   90.00   146.00       6.10 -999.99    6.10     .00000      .00  LINEAR    4.94947E-01  -386.60    0.00000E+00  -229.11
   90.00   147.00       6.15 -999.99    6.15     .00000      .00  LINEAR    4.97662E-01  -388.49    0.00000E+00  -229.11
   90.00   148.00       6.20 -999.99    6.20     .00000      .00  LINEAR    5.00429E-01  -390.32    0.00000E+00  -229.11
   90.00   149.00       6.25 -999.99    6.25     .00000      .00  LINEAR    5.03241E-01  -392.10    0.00000E+00  -229.11
   90.00   150.00       6.30 -999.99    6.30     .00000      .00  LINEAR    5.06088E-01  -393.83    0.00000E+00  -229.11
   90.00   151.00       6.34 -999.99    6.34     .00000      .00  LINEAR    5.08963E-01  -395.49    0.00000E+00  -229.11
   90.00   152.00       6.39 -999.99    6.39     .00000      .00  LINEAR    5.11857E-01  -397.10    0.00000E+00  -229.11
   90.00   153.00       6.44 -999.99    6.44     .00000      .00  LINEAR    5.14762E-01  -398.65    0.00000E+00  -229.11
   90.00   154.00       6.49 -999.99    6.49     .00000      .00  LINEAR    5.17669E-01  -400.14    0.00000E+00  -229.11
   90.00   155.00       6.54 -999.99    6.54     .00000      .00  LINEAR    5.20571E-01  -401.57    0.00000E+00  -229.11
   90.00   156.00       6.59 -999.99    6.59     .00000      .00  LINEAR    5.23458E-01  -402.94    0.00000E+00  -229.11
   90.00   157.00       6.64 -999.99    6.64     .00000      .00  LINEAR    5.26325E-01  -404.25    0.00000E+00  -229.11
   90.00   158.00       6.68 -999.99    6.68     .00000      .00  LINEAR    5.29163E-01  -405.49    0.00000E+00  -229.11
   90.00   159.00       6.73 -999.99    6.73     .00000      .00  LINEAR    5.31965E-01  -406.67    0.00000E+00  -229.11
   90.00   160.00       6.77 -999.99    6.77     .00000      .00  LINEAR    5.34724E-01  -407.79    0.00000E+00  -229.11
   90.00   161.00       6.82 -999.99    6.82     .00000      .00  LINEAR    5.37435E-01  -408.84    0.00000E+00  -229.11
   90.00   162.00       6.86 -999.99    6.86     .00000      .00  LINEAR    5.40090E-01   -49.83    0.00000E+00  -229.11
   90.00   163.00       6.90 -999.99    6.90     .00000      .00  LINEAR    5.42685E-01   -50.75    0.00000E+00  -229.11
   90.00   164.00       6.94 -999.99    6.94     .00000      .00  LINEAR    5.45214E-01   -51.61    0.00000E+00  -229.11
   90.00   165.00       6.98 -999.99    6.98     .00000      .00  LINEAR    5.47672E-01   -52.40    0.00000E+00  -229.11
   90.00   166.00       7.02 -999.99    7.02     .00000      .00  LINEAR    5.50056E-01   -53.12    0.00000E+00  -229.11
   90.00   167.00       7.06 -999.99    7.06     .00000      .00  LINEAR    5.52360E-01   -53.78    0.00000E+00  -229.11
   90.00   168.00       7.09 -999.99    7.09     .00000      .00  LINEAR    5.54582E-01   -54.37    0.00000E+00  -229.11
   90.00   169.00       7.12 -999.99    7.12     .00000      .00  LINEAR    5.56718E-01   -54.89    0.00000E+00  -229.11
   90.00   170.00       7.16 -999.99    7.16     .00000      .00  LINEAR    5.58766E-01   -55.35    0.00000E+00  -229.11
   90.00   171.00       7.19 -999.99    7.19     .00000      .00  LINEAR    5.60723E-01   -55.74    0.00000E+00  -229.11
   90.00   172.00       7.21 -999.99    7.21     .00000      .00  LINEAR    5.62588E-01   -56.06    0.00000E+00  -229.11
   90.00   173.00       7.24 -999.99    7.24     .00000      .00  LINEAR    5.64359E-01   -56.31    0.00000E+00  -229.11
   90.00   174.00       7.27 -999.99    7.27     .00000      .00  LINEAR    5.66036E-01   -56.50    0.00000E+00  -229.11
   90.00   175.00       7.29 -999.99    7.29     .00000      .00  LINEAR    5.67616E-01   -56.61    0.00000E+00  -229.11
   90.00   176.00       7.31 -999.99    7.31     .00000      .00  LINEAR    5.69100E-01   -56.67    0.00000E+00  -229.11
   90.00   177.00       7.34 -999.99    7.34     .00000      .00  LINEAR    5.70489E-01   -56.65    0.00000E+00  -229.11
   90.00   178.00       7.36 -999.99    7.36     .00000      .00  LINEAR    5.71781E-01   -56.56    0.00000E+00  -229.11
   90.00   179.00       7.37 -999.99    7.37     .00000      .00  LINEAR    5.72978E-01   -56.41    0.00000E+00  -229.11
   90.00   180.00       7.39 -999.99    7.39     .00000      .00  LINEAR    5.74081E-01   -56.19    0.00000E+00  -229.11
   90.00   181.00       7.41 -999.99    7.41     .00000      .00  LINEAR    5.75090E-01   -55.91    0.00000E+00  -229.11
   90.00   182.00       7.42 -999.99    7.42     .00000      .00  LINEAR    5.76007E-01   -55.55    0.00000E+00  -229.11
   90.00   183.00       7.43 -999.99    7.43     .00000      .00  LINEAR    5.76833E-01   -55.13    0.00000E+00  -229.11
   90.00   184.00       7.44 -999.99    7.44     .00000      .00  LINEAR    5.77571E-01   -54.64    0.00000E+00  -229.11
   90.00   185.00       7.45 -999.99    7.45     .00000      .00  LINEAR    5.78221E-01   -54.09    0.00000E+00  -229.11
   90.00   186.00       7.46 -999.99    7.46     .00000      .00  LINEAR    5.78786E-01   -53.47    0.00000E+00  -229.11
   90.00   187.00       7.47 -999.99    7.47     .00000      .00  LINEAR    5.79269E-01   -52.78    0.00000E+00  -229.11
   90.00   188.00       7.47 -999.99    7.47     .00000      .00  LINEAR    5.79670E-01   -52.03    0.00000E+00  -229.11
   90.00   189.00       7.48 -999.99    7.48     .00000      .00  LINEAR    5.79994E-01   -51.21    0.00000E+00  -229.11
   90.00   190.00       7.48 -999.99    7.48     .00000      .00  LINEAR    5.80242E-01   -50.33    0.00000E+00  -229.11
   90.00   191.00       7.49 -999.99    7.49     .00000      .00  LINEAR    5.80416E-01   -49.38    0.00000E+00  -229.11
   90.00   192.00       7.49 -999.99    7.49     .00000      .00  LINEAR    5.80521E-01  -408.36    0.00000E+00  -229.11
   90.00   193.00       7.49 -999.99    7.49     .00000      .00  LINEAR    5.80557E-01  -407.29    0.00000E+00  -229.11
   90.00   194.00       7.49 -999.99    7.49     .00000      .00  LINEAR    5.80529E-01  -406.14    0.00000E+00  -229.11
   90.00   195.00       7.49 -999.99    7.49     .00000      .00  LINEAR    5.80439E-01  -404.94    0.00000E+00  -229.11
   90.00   196.00       7.48 -999.99    7.48     .00000      .00  LINEAR    5.80290E-01  -403.67    0.00000E+00  -229.11
   90.00   197.00       7.48 -999.99    7.48     .00000      .00  LINEAR    5.80085E-01  -402.33    0.00000E+00  -229.11
   90.00   198.00       7.48 -999.99    7.48     .00000      .00  LINEAR    5.79827E-01  -400.94    0.00000E+00  -229.11
   90.00   199.00       7.47 -999.99    7.47     .00000      .00  LINEAR    5.79519E-01  -399.48    0.00000E+00  -229.11
   90.00   200.00       7.47 -999.99    7.47     .00000      .00  LINEAR    5.79164E-01  -397.96    0.00000E+00  -229.11
   90.00   201.00       7.46 -999.99    7.46     .00000      .00  LINEAR    5.78766E-01  -396.38    0.00000E+00  -229.11
   90.00   202.00       7.45 -999.99    7.45     .00000      .00  LINEAR    5.78327E-01  -394.73    0.00000E+00  -229.11
   90.00   203.00       7.45 -999.99    7.45     .00000      .00  LINEAR    5.77852E-01  -393.03    0.00000E+00  -229.11
   90.00   204.00       7.44 -999.99    7.44     .00000      .00  LINEAR    5.77342E-01  -391.26    0.00000E+00  -229.11
   90.00   205.00       7.43 -999.99    7.43     .00000      .00  LINEAR    5.76803E-01  -389.44    0.00000E+00  -229.11
   90.00   206.00       7.42 -999.99    7.42     .00000      .00  LINEAR    5.76236E-01  -387.56    0.00000E+00  -229.11
   90.00   207.00       7.41 -999.99    7.41     .00000      .00  LINEAR    5.75646E-01  -385.61    0.00000E+00  -229.11
   90.00   208.00       7.41 -999.99    7.41     .00000      .00  LINEAR    5.75037E-01  -383.61    0.00000E+00  -229.11
   90.00   209.00       7.40 -999.99    7.40     .00000      .00  LINEAR    5.74412E-01  -381.55    0.00000E+00  -229.11
   90.00   210.00       7.39 -999.99    7.39     .00000      .00  LINEAR    5.73774E-01  -379.43    0.00000E+00  -229.11
   90.00   211.00       7.38 -999.99    7.38     .00000      .00  LINEAR    5.73128E-01  -377.26    0.00000E+00  -229.11
   90.00   212.00       7.37 -999.99    7.37     .00000      .00  LINEAR    5.72478E-01  -375.03    0.00000E+00  -229.11
   90.00   213.00       7.36 -999.99    7.36     .00000      .00  LINEAR    5.71827E-01  -372.74    0.00000E+00  -229.11
   90.00   214.00       7.35 -999.99    7.35     .00000      .00  LINEAR    5.71180E-01  -370.40    0.00000E+00  -229.11
   90.00   215.00       7.34 -999.99    7.34     .00000      .00  LINEAR    5.70541E-01  -368.01    0.00000E+00  -229.11
   90.00   216.00       7.33 -999.99    7.33     .00000      .00  LINEAR    5.69913E-01  -365.56    0.00000E+00  -229.11
   90.00   217.00       7.32 -999.99    7.32     .00000      .00  LINEAR    5.69302E-01  -363.06    0.00000E+00  -229.11
   90.00   218.00       7.31 -999.99    7.31     .00000      .00  LINEAR    5.68712E-01  -360.50    0.00000E+00  -229.11
   90.00   219.00       7.30 -999.99    7.30     .00000      .00  LINEAR    5.68147E-01  -357.90    0.00000E+00  -229.11
   90.00   220.00       7.29 -999.99    7.29     .00000      .00  LINEAR    5.67612E-01  -355.24    0.00000E+00  -229.11
   90.00   221.00       7.28 -999.99    7.28     .00000      .00  LINEAR    5.67110E-01  -352.53    0.00000E+00  -229.11
   90.00   222.00       7.28 -999.99    7.28     .00000      .00  LINEAR    5.66648E-01  -349.78    0.00000E+00  -229.11
   90.00   223.00       7.27 -999.99    7.27     .00000      .00  LINEAR    5.66229E-01  -346.98    0.00000E+00  -229.11
   90.00   224.00       7.27 -999.99    7.27     .00000      .00  LINEAR    5.65858E-01  -344.13    0.00000E+00  -229.11
   90.00   225.00       7.26 -999.99    7.26     .00000      .00  LINEAR    5.65539E-01  -341.23    0.00000E+00  -229.11
   90.00   226.00       7.26 -999.99    7.26     .00000      .00  LINEAR    5.65277E-01  -338.29    0.00000E+00  -229.11
   90.00   227.00       7.25 -999.99    7.25     .00000      .00  LINEAR    5.65077E-01  -335.30    0.00000E+00  -229.11
   90.00   228.00       7.25 -999.99    7.25     .00000      .00  LINEAR    5.64943E-01  -332.28    0.00000E+00  -229.11
   90.00   229.00       7.25 -999.99    7.25     .00000      .00  LINEAR    5.64879E-01  -329.21    0.00000E+00  -229.11
   90.00   230.00       7.25 -999.99    7.25     .00000      .00  LINEAR    5.64889E-01  -326.10    0.00000E+00  -229.11
   90.00   231.00       7.25 -999.99    7.25     .00000      .00  LINEAR    5.64978E-01  -322.95    0.00000E+00  -229.11
   90.00   232.00       7.25 -999.99    7.25     .00000      .00  LINEAR    5.65149E-01  -319.77    0.00000E+00  -229.11
   90.00   233.00       7.26 -999.99    7.26     .00000      .00  LINEAR    5.65407E-01  -316.54    0.00000E+00  -229.11
   90.00   234.00       7.26 -999.99    7.26     .00000      .00  LINEAR    5.65754E-01  -313.29    0.00000E+00  -229.11
   90.00   235.00       7.27 -999.99    7.27     .00000      .00  LINEAR    5.66193E-01  -310.00    0.00000E+00  -229.11
   90.00   236.00       7.28 -999.99    7.28     .00000      .00  LINEAR    5.66729E-01  -306.67    0.00000E+00  -229.11
   90.00   237.00       7.29 -999.99    7.29     .00000      .00  LINEAR    5.67363E-01  -303.32    0.00000E+00  -229.11
   90.00   238.00       7.30 -999.99    7.30     .00000      .00  LINEAR    5.68097E-01  -299.94    0.00000E+00  -229.11
   90.00   239.00       7.31 -999.99    7.31     .00000      .00  LINEAR    5.68935E-01  -296.53    0.00000E+00  -229.11
   90.00   240.00       7.33 -999.99    7.33     .00000      .00  LINEAR    5.69876E-01  -293.10    0.00000E+00  -229.11
   90.00   241.00       7.34 -999.99    7.34     .00000      .00  LINEAR    5.70924E-01  -289.64    0.00000E+00  -229.11
   90.00   242.00       7.36 -999.99    7.36     .00000      .00  LINEAR    5.72078E-01  -286.16    0.00000E+00  -229.11
   90.00   243.00       7.38 -999.99    7.38     .00000      .00  LINEAR    5.73340E-01  -282.66    0.00000E+00  -229.11
   90.00   244.00       7.40 -999.99    7.40     .00000      .00  LINEAR    5.74708E-01  -279.13    0.00000E+00  -229.11
   90.00   245.00       7.42 -999.99    7.42     .00000      .00  LINEAR    5.76183E-01  -275.60    0.00000E+00  -229.11
   90.00   246.00       7.45 -999.99    7.45     .00000      .00  LINEAR    5.77764E-01  -272.04    0.00000E+00  -229.11
   90.00   247.00       7.47 -999.99    7.47     .00000      .00  LINEAR    5.79450E-01  -268.47    0.00000E+00  -229.11
   90.00   248.00       7.50 -999.99    7.50     .00000      .00  LINEAR    5.81239E-01  -264.89    0.00000E+00  -229.11
   90.00   249.00       7.53 -999.99    7.53     .00000      .00  LINEAR    5.83129E-01  -261.30    0.00000E+00  -229.11
   90.00   250.00       7.56 -999.99    7.56     .00000      .00  LINEAR    5.85117E-01  -257.70    0.00000E+00  -229.11
   90.00   251.00       7.59 -999.99    7.59     .00000      .00  LINEAR    5.87200E-01  -254.09    0.00000E+00  -229.11
   90.00   252.00       7.62 -999.99    7.62     .00000      .00  LINEAR    5.89375E-01  -250.47    0.00000E+00  -229.11
   90.00   253.00       7.65 -999.99    7.65     .00000      .00  LINEAR    5.91638E-01  -246.85    0.00000E+00  -229.11
   90.00   254.00       7.69 -999.99    7.69     .00000      .00  LINEAR    5.93984E-01  -243.23    0.00000E+00  -229.11
   90.00   255.00       7.72 -999.99    7.72     .00000      .00  LINEAR    5.96409E-01  -239.60    0.00000E+00  -229.11
   90.00   256.00       7.76 -999.99    7.76     .00000      .00  LINEAR    5.98908E-01  -235.97    0.00000E+00  -229.11
   90.00   257.00       7.80 -999.99    7.80     .00000      .00  LINEAR    6.01475E-01  -232.35    0.00000E+00  -229.11
   90.00   258.00       7.83 -999.99    7.83     .00000      .00  LINEAR    6.04105E-01  -228.73    0.00000E+00  -229.11
   90.00   259.00       7.87 -999.99    7.87     .00000      .00  LINEAR    6.06791E-01  -225.11    0.00000E+00  -229.11
   90.00   260.00       7.91 -999.99    7.91     .00000      .00  LINEAR    6.09527E-01  -221.49    0.00000E+00  -229.11
   90.00   261.00       7.95 -999.99    7.95     .00000      .00  LINEAR    6.12306E-01  -217.89    0.00000E+00  -229.11
   90.00   262.00       7.99 -999.99    7.99     .00000      .00  LINEAR    6.15121E-01  -214.29    0.00000E+00  -229.11
   90.00   263.00       8.03 -999.99    8.03     .00000      .00  LINEAR    6.17965E-01  -210.69    0.00000E+00  -229.11
   90.00   264.00       8.07 -999.99    8.07     .00000      .00  LINEAR    6.20831E-01  -207.11    0.00000E+00  -229.11
   90.00   265.00       8.11 -999.99    8.11     .00000      .00  LINEAR    6.23711E-01  -203.54    0.00000E+00  -229.11
   90.00   266.00       8.15 -999.99    8.15     .00000      .00  LINEAR    6.26596E-01  -199.98    0.00000E+00  -229.11
   90.00   267.00       8.19 -999.99    8.19     .00000      .00  LINEAR    6.29480E-01  -196.43    0.00000E+00  -229.11
   90.00   268.00       8.23 -999.99    8.23     .00000      .00  LINEAR    6.32354E-01  -192.90    0.00000E+00  -229.11
   90.00   269.00       8.27 -999.99    8.27     .00000      .00  LINEAR    6.35210E-01  -189.38    0.00000E+00  -229.11
   90.00   270.00       8.31 -999.99    8.31     .00000      .00  LINEAR    6.38039E-01  -185.88    0.00000E+00  -229.11
   90.00   271.00       8.35 -999.99    8.35     .00000      .00  LINEAR    6.40833E-01  -182.39    0.00000E+00  -229.11
   90.00   272.00       8.38 -999.99    8.38     .00000      .00  LINEAR    6.43585E-01  -178.92    0.00000E+00  -229.11
   90.00   273.00       8.42 -999.99    8.42     .00000      .00  LINEAR    6.46285E-01  -175.46    0.00000E+00  -229.11
   90.00   274.00       8.46 -999.99    8.46     .00000      .00  LINEAR    6.48925E-01  -172.03    0.00000E+00  -229.11
   90.00   275.00       8.49 -999.99    8.49     .00000      .00  LINEAR    6.51498E-01  -168.61    0.00000E+00  -229.11
   90.00   276.00       8.52 -999.99    8.52     .00000      .00  LINEAR    6.53995E-01  -165.21    0.00000E+00  -229.11
   90.00   277.00       8.55 -999.99    8.55     .00000      .00  LINEAR    6.56407E-01  -161.84    0.00000E+00  -229.11
   90.00   278.00       8.59 -999.99    8.59     .00000      .00  LINEAR    6.58728E-01  -158.48    0.00000E+00  -229.11
   90.00   279.00       8.61 -999.99    8.61     .00000      .00  LINEAR    6.60949E-01  -155.15    0.00000E+00  -229.11
   90.00   280.00       8.64 -999.99    8.64     .00000      .00  LINEAR    6.63064E-01  -151.83    0.00000E+00  -229.11
   90.00   281.00       8.67 -999.99    8.67     .00000      .00  LINEAR    6.65063E-01  -148.55    0.00000E+00  -229.11
   90.00   282.00       8.69 -999.99    8.69     .00000      .00  LINEAR    6.66942E-01  -145.28    0.00000E+00  -229.11
   90.00   283.00       8.72 -999.99    8.72     .00000      .00  LINEAR    6.68692E-01  -142.04    0.00000E+00  -229.11
   90.00   284.00       8.74 -999.99    8.74     .00000      .00  LINEAR    6.70308E-01  -138.82    0.00000E+00  -229.11
   90.00   285.00       8.76 -999.99    8.76     .00000      .00  LINEAR    6.71783E-01  -135.63    0.00000E+00  -229.11
   90.00   286.00       8.77 -999.99    8.77     .00000      .00  LINEAR    6.73111E-01  -132.46    0.00000E+00  -229.11
   90.00   287.00       8.79 -999.99    8.79     .00000      .00  LINEAR    6.74288E-01  -129.32    0.00000E+00  -229.11
   90.00   288.00       8.80 -999.99    8.80     .00000      .00  LINEAR    6.75309E-01  -126.21    0.00000E+00  -229.11
   90.00   289.00       8.81 -999.99    8.81     .00000      .00  LINEAR    6.76168E-01  -123.12    0.00000E+00  -229.11
   90.00   290.00       8.82 -999.99    8.82     .00000      .00  LINEAR    6.76863E-01  -120.06    0.00000E+00  -229.11
   90.00   291.00       8.83 -999.99    8.83     .00000      .00  LINEAR    6.77389E-01  -117.03    0.00000E+00  -229.11
   90.00   292.00       8.83 -999.99    8.83     .00000      .00  LINEAR    6.77744E-01  -114.02    0.00000E+00  -229.11
   90.00   293.00       8.83 -999.99    8.83     .00000      .00  LINEAR    6.77925E-01  -111.05    0.00000E+00  -229.11
   90.00   294.00       8.83 -999.99    8.83     .00000      .00  LINEAR    6.77931E-01  -108.11    0.00000E+00  -229.11
   90.00   295.00       8.83 -999.99    8.83     .00000      .00  LINEAR    6.77760E-01  -105.19    0.00000E+00  -229.11
   90.00   296.00       8.83 -999.99    8.83     .00000      .00  LINEAR    6.77412E-01  -102.31    0.00000E+00  -229.11
   90.00   297.00       8.82 -999.99    8.82     .00000      .00  LINEAR    6.76886E-01   -99.46    0.00000E+00  -229.11
   90.00   298.00       8.81 -999.99    8.81     .00000      .00  LINEAR    6.76184E-01   -96.64    0.00000E+00  -229.11
   90.00   299.00       8.80 -999.99    8.80     .00000      .00  LINEAR    6.75306E-01   -93.85    0.00000E+00  -229.11
   90.00   300.00       8.79 -999.99    8.79     .00000      .00  LINEAR    6.74254E-01   -91.10    0.00000E+00  -229.11
   90.00   301.00       8.77 -999.99    8.77     .00000      .00  LINEAR    6.73031E-01   -88.38    0.00000E+00  -229.11
   90.00   302.00       8.75 -999.99    8.75     .00000      .00  LINEAR    6.71640E-01   -85.70    0.00000E+00  -229.11
   90.00   303.00       8.73 -999.99    8.73     .00000      .00  LINEAR    6.70084E-01   -83.05    0.00000E+00  -229.11
   90.00   304.00       8.71 -999.99    8.71     .00000      .00  LINEAR    6.68368E-01   -80.44    0.00000E+00  -229.11
   90.00   305.00       8.69 -999.99    8.69     .00000      .00  LINEAR    6.66496E-01   -77.86    0.00000E+00  -229.11
   90.00   306.00       8.66 -999.99    8.66     .00000      .00  LINEAR    6.64474E-01   -75.32    0.00000E+00  -229.11
   90.00   307.00       8.63 -999.99    8.63     .00000      .00  LINEAR    6.62308E-01   -72.82    0.00000E+00  -229.11
   90.00   308.00       8.60 -999.99    8.60     .00000      .00  LINEAR    6.60004E-01   -70.36    0.00000E+00  -229.11
   90.00   309.00       8.57 -999.99    8.57     .00000      .00  LINEAR    6.57569E-01   -67.94    0.00000E+00  -229.11
   90.00   310.00       8.54 -999.99    8.54     .00000      .00  LINEAR    6.55011E-01   -65.56    0.00000E+00  -229.11
   90.00   311.00       8.50 -999.99    8.50     .00000      .00  LINEAR    6.52337E-01   -63.22    0.00000E+00  -229.11
   90.00   312.00       8.46 -999.99    8.46     .00000      .00  LINEAR    6.49554E-01   -60.92    0.00000E+00  -229.11
   90.00   313.00       8.42 -999.99    8.42     .00000      .00  LINEAR    6.46673E-01   -58.66    0.00000E+00  -229.11
   90.00   314.00       8.38 -999.99    8.38     .00000      .00  LINEAR    6.43701E-01   -56.45    0.00000E+00  -229.11
   90.00   315.00       8.34 -999.99    8.34     .00000      .00  LINEAR    6.40647E-01   -54.29    0.00000E+00  -229.11
   90.00   316.00       8.30 -999.99    8.30     .00000      .00  LINEAR    6.37520E-01   -52.16    0.00000E+00  -229.11
   90.00   317.00       8.26 -999.99    8.26     .00000      .00  LINEAR    6.34330E-01   -50.09    0.00000E+00  -229.11
   90.00   318.00       8.21 -999.99    8.21     .00000      .00  LINEAR    6.31086E-01  -408.06    0.00000E+00  -229.11
   90.00   319.00       8.17 -999.99    8.17     .00000      .00  LINEAR    6.27798E-01  -406.08    0.00000E+00  -229.11
   90.00   320.00       8.12 -999.99    8.12     .00000      .00  LINEAR    6.24474E-01  -404.15    0.00000E+00  -229.11
   90.00   321.00       8.07 -999.99    8.07     .00000      .00  LINEAR    6.21125E-01  -402.27    0.00000E+00  -229.11
   90.00   322.00       8.03 -999.99    8.03     .00000      .00  LINEAR    6.17760E-01  -400.44    0.00000E+00  -229.11
   90.00   323.00       7.98 -999.99    7.98     .00000      .00  LINEAR    6.14388E-01  -398.66    0.00000E+00  -229.11
   90.00   324.00       7.93 -999.99    7.93     .00000      .00  LINEAR    6.11018E-01  -396.93    0.00000E+00  -229.11
   90.00   325.00       7.88 -999.99    7.88     .00000      .00  LINEAR    6.07659E-01  -395.26    0.00000E+00  -229.11
   90.00   326.00       7.84 -999.99    7.84     .00000      .00  LINEAR    6.04319E-01  -393.64    0.00000E+00  -229.11
   90.00   327.00       7.79 -999.99    7.79     .00000      .00  LINEAR    6.01008E-01  -392.08    0.00000E+00  -229.11
   90.00   328.00       7.74 -999.99    7.74     .00000      .00  LINEAR    5.97732E-01  -390.57    0.00000E+00  -229.11
   90.00   329.00       7.69 -999.99    7.69     .00000      .00  LINEAR    5.94500E-01  -389.11    0.00000E+00  -229.11
   90.00   330.00       7.65 -999.99    7.65     .00000      .00  LINEAR    5.91320E-01  -387.72    0.00000E+00  -229.11
   90.00   331.00       7.60 -999.99    7.60     .00000      .00  LINEAR    5.88197E-01  -386.38    0.00000E+00  -229.11
   90.00   332.00       7.56 -999.99    7.56     .00000      .00  LINEAR    5.85140E-01  -385.10    0.00000E+00  -229.11
   90.00   333.00       7.51 -999.99    7.51     .00000      .00  LINEAR    5.82153E-01  -383.88    0.00000E+00  -229.11
   90.00   334.00       7.47 -999.99    7.47     .00000      .00  LINEAR    5.79243E-01  -382.72    0.00000E+00  -229.11
   90.00   335.00       7.43 -999.99    7.43     .00000      .00  LINEAR    5.76415E-01  -381.61    0.00000E+00  -229.11
   90.00   336.00       7.38 -999.99    7.38     .00000      .00  LINEAR    5.73674E-01  -380.57    0.00000E+00  -229.11
   90.00   337.00       7.34 -999.99    7.34     .00000      .00  LINEAR    5.71024E-01  -379.59    0.00000E+00  -229.11
   90.00   338.00       7.31 -999.99    7.31     .00000      .00  LINEAR    5.68468E-01  -378.67    0.00000E+00  -229.11
   90.00   339.00       7.27 -999.99    7.27     .00000      .00  LINEAR    5.66012E-01  -377.82    0.00000E+00  -229.11
   90.00   340.00       7.23 -999.99    7.23     .00000      .00  LINEAR    5.63656E-01  -377.02    0.00000E+00  -229.11
   90.00   341.00       7.20 -999.99    7.20     .00000      .00  LINEAR    5.61404E-01  -376.29    0.00000E+00  -229.11
   90.00   342.00       7.16 -999.99    7.16     .00000      .00  LINEAR    5.59258E-01  -375.62    0.00000E+00  -229.11
   90.00   343.00       7.13 -999.99    7.13     .00000      .00  LINEAR    5.57220E-01  -375.01    0.00000E+00  -229.11
   90.00   344.00       7.10 -999.99    7.10     .00000      .00  LINEAR    5.55290E-01  -374.47    0.00000E+00  -229.11
   90.00   345.00       7.07 -999.99    7.07     .00000      .00  LINEAR    5.53468E-01  -373.98    0.00000E+00  -229.11
   90.00   346.00       7.05 -999.99    7.05     .00000      .00  LINEAR    5.51757E-01  -373.57    0.00000E+00  -229.11
   90.00   347.00       7.02 -999.99    7.02     .00000      .00  LINEAR    5.50154E-01  -373.21    0.00000E+00  -229.11
   90.00   348.00       7.00 -999.99    7.00     .00000      .00  LINEAR    5.48660E-01  -372.92    0.00000E+00  -229.11
   90.00   349.00       6.98 -999.99    6.98     .00000      .00  LINEAR    5.47274E-01  -372.69    0.00000E+00  -229.11
   90.00   350.00       6.95 -999.99    6.95     .00000      .00  LINEAR    5.45994E-01  -372.52    0.00000E+00  -229.11
   90.00   351.00       6.94 -999.99    6.94     .00000      .00  LINEAR    5.44819E-01  -372.42    0.00000E+00  -229.11
   90.00   352.00       6.92 -999.99    6.92     .00000      .00  LINEAR    5.43747E-01  -372.37    0.00000E+00  -229.11
   90.00   353.00       6.90 -999.99    6.90     .00000      .00  LINEAR    5.42776E-01  -372.40    0.00000E+00  -229.11
   90.00   354.00       6.89 -999.99    6.89     .00000      .00  LINEAR    5.41903E-01  -372.48    0.00000E+00  -229.11
   90.00   355.00       6.88 -999.99    6.88     .00000      .00  LINEAR    5.41126E-01  -372.62    0.00000E+00  -229.11
   90.00   356.00       6.87 -999.99    6.87     .00000      .00  LINEAR    5.40442E-01  -372.83    0.00000E+00  -229.11
   90.00   357.00       6.86 -999.99    6.86     .00000      .00  LINEAR    5.39848E-01  -373.10    0.00000E+00  -229.11
   90.00   358.00       6.85 -999.99    6.85     .00000      .00  LINEAR    5.39340E-01  -373.43    0.00000E+00  -229.11
   90.00   359.00       6.84 -999.99    6.84     .00000      .00  LINEAR    5.38915E-01  -373.82    0.00000E+00  -229.11
   90.00   360.00       6.84 -999.99    6.84     .00000      .00  LINEAR    5.38570E-01  -374.27    0.00000E+00  -229.11






